* d1n914 model created using Parts release 3.08a on 05/12/89 at 11:25
*
.MODEL D1N914 D(IS=2.832P RS=4.888 N=1 XTI=3 EG=1.11 BV=75 IBV=5M CJO=2.721P
+  VJ=.75 M=.3333 FC=.5 TT=5.771N)
