* q2n4030 model created using Parts release 3.08a on 04/06/89 at 13:57
*
.MODEL Q2N4030 PNP(IS=21.15F XTI=3 EG=1.11 VAF=100 BF=97.92 NE=1.275 ISE=21.15F
+  IKF=.8158 XTB=1.5 BR=46.75M NC=2 ISC=0 IKR=0 RC=0 CJC=29.15P VJC=.75
+  MJC=.3333 FC=.5 CJE=78.25P VJE=.75 MJE=.3333 TR=12.65U TF=750P ITF=0 VTF=0
+  XTF=0)
